Distribution/8500Node/DSSfiles/IEEE8500u_VLN_Node.Txt

LINE-GROUND and LINE-LINE VOLTAGES BY BUS & NODE

Bus                  Node    VLN (kV)   Angle      pu     Base kV    Node-Node   VLL (kV)  Angle      pu

SOURCEBUS .......... 1       69.715 /_    0.0      1.05   115.000        1-2     120.75 /_   30.0      1.05
   -                 2       69.715 /_ -120.0      1.05   115.000        2-3     120.75 /_  -90.0      1.05
   -                 3       69.715 /_  120.0      1.05   115.000        3-1     120.75 /_  150.0      1.05
_HVMV_SUB_LSB ...... 1            0 /_    0.0         0   115.000        1-2          0 /_    0.0         0
   -                 2            0 /_    0.0         0   115.000        2-3          0 /_    0.0         0
   -                 3            0 /_    0.0         0   115.000        3-1          0 /_    0.0         0
HVMV_SUB_48332 ..... 1            0 /_    0.0         0   115.000        1-2          0 /_    0.0         0
   -                 2            0 /_    0.0         0   115.000        2-3          0 /_    0.0         0
   -                 3            0 /_    0.0         0   115.000        3-1          0 /_    0.0         0
M1009763 ........... 1            0 /_    0.0         0   115.000        1-2          0 /_    0.0         0
   -                 2            0 /_    0.0         0   115.000        2-3          0 /_    0.0         0
   -                 3            0 /_    0.0         0   115.000        3-1          0 /_    0.0         0
L2673322 ........... 2            0 /_    0.0         0   115.000
M1069148 ........... 3            0 /_    0.0         0   115.000
L2673309 ........... 3            0 /_    0.0         0   115.000
M1069588 ........... 2            0 /_    0.0         0   115.000
L2804270 ........... 2            0 /_    0.0         0   115.000
M3036164 ........... 2            0 /_    0.0         0   115.000
L2935553 ........... 2            0 /_    0.0         0   115.000
M1209749 ........... 2            0 /_    0.0         0   115.000
L2748840 ........... 2            0 /_    0.0         0   115.000
M1108264 ........... 2            0 /_    0.0         0   115.000
M1108263 ........... 2            0 /_    0.0         0   115.000
L3085398 ........... 1            0 /_    0.0         0   115.000        1-2          0 /_    0.0         0
   -                 2            0 /_    0.0         0   115.000        2-3          0 /_    0.0         0
   -                 3            0 /_    0.0         0   115.000        3-1          0 /_    0.0         0
M1026891 ........... 1            0 /_    0.0         0   115.000        1-2          0 /_    0.0         0
   -                 2            0 /_    0.0         0   115.000        2-3          0 /_    0.0         0
   -                 3            0 /_    0.0         0   115.000        3-1          0 /_    0.0         0
L3216367 ........... 1            0 /_    0.0         0   115.000        1-2          0 /_    0.0         0
   -                 2            0 /_    0.0         0   115.000        2-3          0 /_    0.0         0
   -                 3            0 /_    0.0         0   115.000        3-1          0 /_    0.0         0
M1069468 ........... 1            0 /_    0.0         0   115.000        1-2          0 /_    0.0         0
   -                 2            0 /_    0.0         0   115.000        2-3          0 /_    0.0         0
   -                 3            0 /_    0.0         0   115.000        3-1          0 /_    0.0         0
M1142800 ........... 2            0 /_    0.0         0   115.000
M1142799 ........... 2            0 /_    0.0         0   115.000
M1047592 ........... 1            0 /_    0.0         0   115.000        1-2          0 /_    0.0         0
   -                 2            0 /_    0.0         0   115.000        2-3          0 /_    0.0         0
   -                 3            0 /_    0.0         0   115.000        3-1          0 /_    0.0         0
P827512 ............ 3            0 /_    0.0         0   115.000
M1047339 ........... 1            0 /_    0.0         0   115.000        1-2          0 /_    0.0         0
   -                 2            0 /_    0.0         0   115.000        2-3          0 /_    0.0         0
   -                 3            0 /_    0.0         0   115.000        3-1          0 /_    0.0         0
P895104 ............ 1            0 /_    0.0         0   115.000
M1026915 ........... 1            0 /_    0.0         0   115.000        1-2          0 /_    0.0         0
   -                 2            0 /_    0.0         0   115.000        2-3          0 /_    0.0         0
   -                 3            0 /_    0.0         0   115.000        3-1          0 /_    0.0         0
M1026920 ........... 1            0 /_    0.0         0   115.000        1-2          0 /_    0.0         0
   -                 2            0 /_    0.0         0   115.000        2-3          0 /_    0.0         0
   -                 3            0 /_    0.0         0   115.000        3-1          0 /_    0.0         0
N1138596 ........... 1            0 /_    0.0         0   115.000
L3254207 ........... 1            0 /_    0.0         0   115.000
M1069464 ........... 1            0 /_    0.0         0   115.000        1-2          0 /_    0.0         0
   -                 2            0 /_    0.0         0   115.000        2-3          0 /_    0.0         0
   -                 3            0 /_    0.0         0   115.000        3-1          0 /_    0.0         0
P873787 ............ 2            0 /_    0.0         0   115.000
N1144665 ........... 1            0 /_    0.0         0   115.000        1-2          0 /_    0.0         0
   -                 2            0 /_    0.0         0   115.000        2-3          0 /_    0.0         0
   -                 3            0 /_    0.0         0   115.000        3-1          0 /_    0.0         0
M1047515 ........... 1            0 /_    0.0         0   115.000        1-2          0 /_    0.0         0
   -                 2            0 /_    0.0         0   115.000        2-3          0 /_    0.0         0
   -                 3            0 /_    0.0         0   115.000        3-1          0 /_    0.0         0
N1137002 ........... 1            0 /_    0.0         0   115.000
M1047707 ........... 1            0 /_    0.0         0   115.000
L2729406 ........... 3            0 /_    0.0         0   115.000
L2897768 ........... 3            0 /_    0.0         0   115.000
L3649301 ........... 1            0 /_    0.0         0   115.000
L3649302 ........... 1            0 /_    0.0         0   115.000
L2970842 ........... 2            0 /_    0.0         0   115.000
M1089113 ........... 2            0 /_    0.0         0   115.000
M1047312 ........... 1            0 /_    0.0         0   115.000        1-2          0 /_    0.0         0
   -                 2            0 /_    0.0         0   115.000        2-3          0 /_    0.0         0
   -                 3            0 /_    0.0         0   115.000        3-1          0 /_    0.0         0
P893163 ............ 1            0 /_    0.0         0   115.000
L2822871 ........... 1            0 /_    0.0         0   115.000        1-2          0 /_    0.0         0
   -                 2            0 /_    0.0         0   115.000        2-3          0 /_    0.0         0
   -                 3            0 /_    0.0         0   115.000        3-1          0 /_    0.0         0
M1026872 ........... 1            0 /_    0.0         0   115.000        1-2          0 /_    0.0         0
   -                 2            0 /_    0.0         0   115.000        2-3          0 /_    0.0         0
   -                 3            0 /_    0.0         0   115.000        3-1          0 /_    0.0         0
M1026312 ........... 2            0 /_    0.0         0   115.000
L2973163 ........... 2            0 /_    0.0         0   115.000
L3728038 ........... 1            0 /_    0.0         0   115.000
L3728039 ........... 1            0 /_    0.0         0   115.000
M1069567 ........... 2            0 /_    0.0         0   115.000
M1069582 ........... 2            0 /_    0.0         0   115.000
N1140830 ........... 1            0 /_    0.0         0   115.000
L3216351 ........... 1            0 /_    0.0         0   115.000
L2952007 ........... 3            0 /_    0.0         0   115.000
L2861158 ........... 3            0 /_    0.0         0   115.000
N1140827 ........... 1            0 /_    0.0         0   115.000        1-2          0 /_    0.0         0
   -                 2            0 /_    0.0         0   115.000        2-3          0 /_    0.0         0
   -                 3            0 /_    0.0         0   115.000        3-1          0 /_    0.0         0
M1026726 ........... 1            0 /_    0.0         0   115.000        1-2          0 /_    0.0         0
   -                 2            0 /_    0.0         0   115.000        2-3          0 /_    0.0         0
   -                 3            0 /_    0.0         0   115.000        3-1          0 /_    0.0         0
L2730106 ........... 1            0 /_    0.0         0   115.000        1-2          0 /_    0.0         0
   -                 2            0 /_    0.0         0   115.000        2-3          0 /_    0.0         0
   -                 3            0 /_    0.0         0   115.000        3-1          0 /_    0.0         0
N1142099 ........... 1            0 /_    0.0         0   115.000        1-2          0 /_    0.0         0
   -                 2            0 /_    0.0         0   115.000        2-3          0 /_    0.0         0
   -                 3            0 /_    0.0         0   115.000        3-1          0 /_    0.0         0
M1026658 ........... 1            0 /_    0.0         0   115.000        1-2          0 /_    0.0         0
   -                 2            0 /_    0.0         0   115.000        2-3          0 /_    0.0         0
   -                 3            0 /_    0.0         0   115.000        3-1          0 /_    0.0         0
L3172805 ........... 1            0 /_    0.0         0   115.000
P895112 ............ 1            0 /_    0.0         0   115.000
L3048962 ........... 1            0 /_    0.0         0   115.000
L2991914 ........... 1            0 /_    0.0         0   115.000        1-2          0 /_    0.0         0
   -                 2            0 /_    0.0         0   115.000        2-3          0 /_    0.0         0
   -                 3            0 /_    0.0         0   115.000        3-1          0 /_    0.0         0
M1047503 ........... 1            0 /_    0.0         0   115.000        1-2          0 /_    0.0         0
   -                 2            0 /_    0.0         0   115.000        2-3          0 /_    0.0         0
   -                 3            0 /_    0.0         0   115.000        3-1          0 /_    0.0         0
M1047751 ........... 1            0 /_    0.0         0   115.000
L2973154 ........... 1            0 /_    0.0         0   115.000
L3010565 ........... 3            0 /_    0.0         0   115.000
L2897775 ........... 3            0 /_    0.0         0   115.000
M1125955 ........... 3            0 /_    0.0         0   115.000
M1125957 ........... 3            0 /_    0.0         0   115.000
M1069640 ........... 2            0 /_    0.0         0   115.000
L2804269 ........... 2            0 /_    0.0         0   115.000
M1026702 ........... 1            0 /_    0.0         0   115.000        1-2          0 /_    0.0         0
   -                 2            0 /_    0.0         0   115.000        2-3          0 /_    0.0         0
   -                 3            0 /_    0.0         0   115.000        3-1          0 /_    0.0         0
N1139551 ........... 1            0 /_    0.0         0   115.000        1-2          0 /_    0.0         0
   -                 2            0 /_    0.0         0   115.000        2-3          0 /_    0.0         0
   -                 3            0 /_    0.0         0   115.000        3-1          0 /_    0.0         0
N1136355 ........... 2            0 /_    0.0         0   115.000
L2783231 ........... 2            0 /_    0.0         0   115.000
L2748143 ........... 1            0 /_    0.0         0   115.000
L3251854 ........... 1            0 /_    0.0         0   115.000
M1069610 ........... 2            0 /_    0.0         0   115.000
M1069600 ........... 2            0 /_    0.0         0   115.000
M1069424 ........... 1            0 /_    0.0         0   115.000        1-2          0 /_    0.0         0
   -                 2            0 /_    0.0         0   115.000        2-3          0 /_    0.0         0
   -                 3            0 /_    0.0         0   115.000        3-1          0 /_    0.0         0
L2935549 ........... 1            0 /_    0.0         0   115.000        1-2          0 /_    0.0         0
   -                 2            0 /_    0.0         0   115.000        2-3          0 /_    0.0         0
   -                 3            0 /_    0.0         0   115.000        3-1          0 /_    0.0         0
P895089 ............ 3            0 /_    0.0         0   115.000
L3235242 ........... 3            0 /_    0.0         0   115.000
M1026795 ........... 1            0 /_    0.0         0   115.000        1-2          0 /_    0.0         0
   -                 2            0 /_    0.0         0   115.000        2-3          0 /_    0.0         0
   -                 3            0 /_    0.0         0   115.000        3-1          0 /_    0.0         0
N1140522 ........... 3            0 /_    0.0         0   115.000
L3030199 ........... 1            0 /_    0.0         0   115.000        1-2          0 /_    0.0         0
   -                 2            0 /_    0.0         0   115.000        2-3          0 /_    0.0         0
   -                 3            0 /_    0.0         0   115.000        3-1          0 /_    0.0         0
M1125934 ........... 1            0 /_    0.0         0   115.000        1-2          0 /_    0.0         0
   -                 2            0 /_    0.0         0   115.000        2-3          0 /_    0.0         0
   -                 3            0 /_    0.0         0   115.000        3-1          0 /_    0.0         0
M1069189 ........... 1            0 /_    0.0         0   115.000        1-2          0 /_    0.0         0
   -                 2            0 /_    0.0         0   115.000        2-3          0 /_    0.0         0
   -                 3            0 /_    0.0         0   115.000        3-1          0 /_    0.0         0
L2860487 ........... 3            0 /_    0.0         0   115.000
221-312488 ......... 1            0 /_    0.0         0   115.000        1-2          0 /_    0.0         0
   -                 2            0 /_    0.0         0   115.000        2-3          0 /_    0.0         0
   -                 3            0 /_    0.0         0   115.000        3-1          0 /_    0.0         0
M1089183 ........... 1            0 /_    0.0         0   115.000        1-2          0 /_    0.0         0
   -                 2            0 /_    0.0         0   115.000        2-3          0 /_    0.0         0
   -                 3            0 /_    0.0         0   115.000        3-1          0 /_    0.0         0
M1108464 ........... 2            0 /_    0.0         0   115.000
L3102286 ........... 2            0 /_    0.0         0   115.000
F739845 ............ 1            0 /_    0.0         0   115.000        1-2          0 /_    0.0         0
   -                 2            0 /_    0.0         0   115.000        2-3          0 /_    0.0         0
   -                 3            0 /_    0.0         0   115.000        3-1          0 /_    0.0         0
293471 ............. 1            0 /_    0.0         0   115.000        1-2          0 /_    0.0         0
   -                 2            0 /_    0.0         0   115.000        2-3          0 /_    0.0         0
   -                 3            0 /_    0.0         0   115.000        3-1          0 /_    0.0         0
P827499 ............ 1            0 /_    0.0         0   115.000
N1139254 ........... 1            0 /_    0.0         0   115.000
M1026657 ........... 1            0 /_    0.0         0   115.000
M1026656 ........... 1            0 /_    0.0         0   115.000
M1108299 ........... 2            0 /_    0.0         0   115.000
M1108300 ........... 2            0 /_    0.0         0   115.000
L3198355 ........... 2            0 /_    0.0         0   115.000
L2805037 ........... 2            0 /_    0.0         0   115.000
N1137994 ........... 3            0 /_    0.0         0   115.000
M1069484 ........... 3            0 /_    0.0         0   115.000
L2860504 ........... 1            0 /_    0.0         0   115.000
L2860493 ........... 1            0 /_    0.0         0   115.000
M1026783 ........... 1            0 /_    0.0         0   115.000        1-2          0 /_    0.0         0
   -                 2            0 /_    0.0         0   115.000        2-3          0 /_    0.0         0
   -                 3            0 /_    0.0         0   115.000        3-1          0 /_    0.0         0
M1026780 ........... 1            0 /_    0.0         0   115.000        1-2          0 /_    0.0         0
   -                 2            0 /_    0.0         0   115.000        2-3          0 /_    0.0         0
   -                 3            0 /_    0.0         0   115.000        3-1          0 /_    0.0         0
P895111 ............ 3            0 /_    0.0         0   115.000
L2895496 ........... 3            0 /_    0.0         0   115.000
N1140819 ........... 1            0 /_    0.0         0   115.000        1-2          0 /_    0.0         0
   -                 2            0 /_    0.0         0   115.000        2-3          0 /_    0.0         0
   -                 3            0 /_    0.0         0   115.000        3-1          0 /_    0.0         0
M1026700 ........... 1            0 /_    0.0         0   115.000        1-2          0 /_    0.0         0
   -                 2            0 /_    0.0         0   115.000        2-3          0 /_    0.0         0
   -                 3            0 /_    0.0         0   115.000        3-1          0 /_    0.0         0
M1089173 ........... 3            0 /_    0.0         0   115.000
L2935551 ........... 3            0 /_    0.0         0   115.000
M1026344 ........... 1            0 /_    0.0         0   115.000
M1026364 ........... 1            0 /_    0.0         0   115.000
L2879070 ........... 1            0 /_    0.0         0   115.000        1-2          0 /_    0.0         0
   -                 2            0 /_    0.0         0   115.000        2-3          0 /_    0.0         0
   -                 3            0 /_    0.0         0   115.000        3-1          0 /_    0.0         0
L3216345 ........... 1            0 /_    0.0         0   115.000        1-2          0 /_    0.0         0
   -                 2            0 /_    0.0         0   115.000        2-3          0 /_    0.0         0
   -                 3            0 /_    0.0         0   115.000        3-1          0 /_    0.0         0
M1069428 ........... 1            0 /_    0.0         0   115.000        1-2          0 /_    0.0         0
   -                 2            0 /_    0.0         0   115.000        2-3          0 /_    0.0         0
   -                 3            0 /_    0.0         0   115.000        3-1          0 /_    0.0         0
N1139257 ........... 2            0 /_    0.0         0   115.000
L2991919 ........... 1            0 /_    0.0         0   115.000
M1026361 ........... 1            0 /_    0.0         0   115.000
N1147857 ........... 1            0 /_    0.0         0   115.000
M1009742 ........... 1            0 /_    0.0         0   115.000
Q14412 ............. 1            0 /_    0.0         0   115.000        1-2          0 /_    0.0         0
   -                 2            0 /_    0.0         0   115.000        2-3          0 /_    0.0         0
   -                 3            0 /_    0.0         0   115.000        3-1          0 /_    0.0         0
M1047325 ........... 1            0 /_    0.0         0   115.000        1-2          0 /_    0.0         0
   -                 2            0 /_    0.0         0   115.000        2-3          0 /_    0.0         0
   -                 3            0 /_    0.0         0   115.000        3-1          0 /_    0.0         0
N1139263 ........... 1            0 /_    0.0         0   115.000
L3048227 ........... 1            0 /_    0.0         0   115.000
P827506 ............ 1            0 /_    0.0         0   115.000
M1069469 ........... 1            0 /_    0.0         0   115.000
M1027019 ........... 2            0 /_    0.0         0   115.000
L2785522 ........... 2            0 /_    0.0         0   115.000
L3216338 ........... 2            0 /_    0.0         0   115.000
L2973146 ........... 2            0 /_    0.0         0   115.000
M3037452 ........... 1            0 /_    0.0         0   115.000
L2973164 ........... 1            0 /_    0.0         0   115.000
L3120376 ........... 1            0 /_    0.0         0   115.000
M1026925 ........... 1            0 /_    0.0         0   115.000
M1047612 ........... 3            0 /_    0.0         0   115.000
P828360 ............ 3            0 /_    0.0         0   115.000
M1089195 ........... 3            0 /_    0.0         0   115.000
L3141393 ........... 3            0 /_    0.0         0   115.000
M1026946 ........... 2            0 /_    0.0         0   115.000
M1026940 ........... 2            0 /_    0.0         0   115.000
M1047471 ........... 2            0 /_    0.0         0   115.000
L3216349 ........... 2            0 /_    0.0         0   115.000
M1047401 ........... 1            0 /_    0.0         0   115.000
L2748132 ........... 1            0 /_    0.0         0   115.000
L3122820 ........... 1            0 /_    0.0         0   115.000
L3141398 ........... 1            0 /_    0.0         0   115.000
M1108360 ........... 3            0 /_    0.0         0   115.000
L3048968 ........... 3            0 /_    0.0         0   115.000
L2801950 ........... 3            0 /_    0.0         0   115.000
M1069224 ........... 3            0 /_    0.0         0   115.000
L2766746 ........... 3            0 /_    0.0         0   115.000
M1027073 ........... 3            0 /_    0.0         0   115.000
M1142873 ........... 3            0 /_    0.0         0   115.000
M1069181 ........... 1            0 /_    0.0         0   115.000
L2973151 ........... 1            0 /_    0.0         0   115.000
L3179682 ........... 3            0 /_    0.0         0   115.000
L2786274 ........... 3            0 /_    0.0         0   115.000
L3066816 ........... 1            0 /_    0.0         0   115.000
M1026667 ........... 1            0 /_    0.0         0   115.000
M1108529 ........... 1            0 /_    0.0         0   115.000        1-2          0 /_    0.0         0
   -                 2            0 /_    0.0         0   115.000        2-3          0 /_    0.0         0
   -                 3            0 /_    0.0         0   115.000        3-1          0 /_    0.0         0
M1108532 ........... 1            0 /_    0.0         0   115.000        1-2          0 /_    0.0         0
   -                 2            0 /_    0.0         0   115.000        2-3          0 /_    0.0         0
   -                 3            0 /_    0.0         0   115.000        3-1          0 /_    0.0         0
L2766723 ........... 1            0 /_    0.0         0   115.000
L3122822 ........... 1            0 /_    0.0         0   115.000
L2673312 ........... 1            0 /_    0.0         0   115.000
L3235247 ........... 1            0 /_    0.0         0   115.000
M1166391 ........... 3            0 /_    0.0         0   115.000
L3254873 ........... 3            0 /_    0.0         0   115.000
L2861157 ........... 3            0 /_    0.0         0   115.000
P901951 ............ 3            0 /_    0.0         0   115.000
M1047346 ........... 1            0 /_    0.0         0   115.000        1-2          0 /_    0.0         0
   -                 2            0 /_    0.0         0   115.000        2-3          0 /_    0.0         0
   -                 3            0 /_    0.0         0   115.000        3-1          0 /_    0.0         0
M1047345 ........... 1            0 /_    0.0         0   115.000        1-2          0 /_    0.0         0
   -                 2            0 /_    0.0         0   115.000        2-3          0 /_    0.0         0
   -                 3            0 /_    0.0         0   115.000        3-1          0 /_    0.0         0
L2989596 ........... 2            0 /_    0.0         0   115.000
L2822873 ........... 2            0 /_    0.0         0   115.000
M1108328 ........... 3            0 /_    0.0         0   115.000
L2875754 ........... 3            0 /_    0.0         0   115.000
L2786204 ........... 3            0 /_    0.0         0   115.000
M1209819 ........... 3            0 /_    0.0         0   115.000
P901972 ............ 1            0 /_    0.0         0   115.000
M1009726 ........... 1            0 /_    0.0         0   115.000
M1047702 ........... 1            0 /_    0.0         0   115.000
N1137001 ........... 1            0 /_    0.0         0   115.000
L2767340 ........... 1            0 /_    0.0         0   115.000        1-2          0 /_    0.0         0
   -                 2            0 /_    0.0         0   115.000        2-3          0 /_    0.0         0
   -                 3            0 /_    0.0         0   115.000        3-1          0 /_    0.0         0
M3037449 ........... 1            0 /_    0.0         0   115.000        1-2          0 /_    0.0         0
   -                 2            0 /_    0.0         0   115.000        2-3          0 /_    0.0         0
   -                 3            0 /_    0.0         0   115.000        3-1          0 /_    0.0         0
M1047457 ........... 2            0 /_    0.0         0   115.000
L2710546 ........... 2            0 /_    0.0         0   115.000
L2674027 ........... 1            0 /_    0.0         0   115.000        1-2          0 /_    0.0         0
   -                 2            0 /_    0.0         0   115.000        2-3          0 /_    0.0         0
   -                 3            0 /_    0.0         0   115.000        3-1          0 /_    0.0         0
L2692633 ........... 1            0 /_    0.0         0   115.000        1-2          0 /_    0.0         0
   -                 2            0 /_    0.0         0   115.000        2-3          0 /_    0.0         0
   -                 3            0 /_    0.0         0   115.000        3-1          0 /_    0.0         0
N1142108 ........... 1            0 /_    0.0         0   115.000
L2674051 ........... 1            0 /_    0.0         0   115.000
M1069135 ........... 1            0 /_    0.0         0   115.000        1-2          0 /_    0.0         0
   -                 2            0 /_    0.0         0   115.000        2-3          0 /_    0.0         0
   -                 3            0 /_    0.0         0   115.000        3-1          0 /_    0.0         0
R18242 ............. 1            0 /_    0.0         0   115.000        1-2          0 /_    0.0         0
   -                 2            0 /_    0.0         0   115.000        2-3          0 /_    0.0         0
   -                 3            0 /_    0.0         0   115.000        3-1          0 /_    0.0         0
M1047534 ........... 1            0 /_    0.0         0   115.000        1-2          0 /_    0.0         0
   -                 2            0 /_    0.0         0   115.000        2-3          0 /_    0.0         0
   -                 3            0 /_    0.0         0   115.000        3-1          0 /_    0.0         0
N1136663 ........... 1            0 /_    0.0         0   115.000        1-2          0 /_    0.0         0
   -                 2            0 /_    0.0         0   115.000        2-3          0 /_    0.0         0
   -                 3            0 /_    0.0         0   115.000        3-1          0 /_    0.0         0
M1108508 ........... 3            0 /_    0.0         0   115.000
L3097861 ........... 3            0 /_    0.0         0   115.000
M1069560 ........... 2            0 /_    0.0         0   115.000
L2973153 ........... 1            0 /_    0.0         0   115.000        1-2          0 /_    0.0         0
   -                 2            0 /_    0.0         0   115.000        2-3          0 /_    0.0         0
   -                 3            0 /_    0.0         0   115.000        3-1          0 /_    0.0         0
N1136998 ........... 1            0 /_    0.0         0   115.000        1-2          0 /_    0.0         0
   -                 2            0 /_    0.0         0   115.000        2-3          0 /_    0.0         0
   -                 3            0 /_    0.0         0   115.000        3-1          0 /_    0.0         0
L2898515 ........... 3            0 /_    0.0         0   115.000
M1166387 ........... 3            0 /_    0.0         0   115.000
M1047442 ........... 2            0 /_    0.0         0   115.000
L3235250 ........... 2            0 /_    0.0         0   115.000
M1142871 ........... 1            0 /_    0.0         0   115.000        1-2          0 /_    0.0         0
   -                 2            0 /_    0.0         0   115.000        2-3          0 /_    0.0         0
   -                 3            0 /_    0.0         0   115.000        3-1          0 /_    0.0         0
M1142874 ........... 1            0 /_    0.0         0   115.000        1-2          0 /_    0.0         0
   -                 2            0 /_    0.0         0   115.000        2-3          0 /_    0.0         0
   -                 3            0 /_    0.0         0   115.000        3-1          0 /_    0.0         0
L2955081 ........... 1            0 /_    0.0         0   115.000        1-2          0 /_    0.0         0
   -                 2            0 /_    0.0         0   115.000        2-3          0 /_    0.0         0
   -                 3            0 /_    0.0         0   115.000        3-1          0 /_    0.0         0
M1108315 ........... 1            0 /_    0.0         0   115.000        1-2          0 /_    0.0         0
   -                 2            0 /_    0.0         0   115.000        2-3          0 /_    0.0         0
   -                 3            0 /_    0.0         0   115.000        3-1          0 /_    0.0         0
L2973162 ........... 1            0 /_    0.0         0   115.000        1-2          0 /_    0.0         0
   -                 2            0 /_    0.0         0   115.000        2-3          0 /_    0.0         0
   -                 3            0 /_    0.0         0   115.000        3-1          0 /_    0.0         0
M1026333 ........... 1            0 /_    0.0         0   115.000        1-2          0 /_    0.0         0
   -                 2            0 /_    0.0         0   115.000        2-3          0 /_    0.0         0
   -                 3            0 /_    0.0         0   115.000        3-1          0 /_    0.0         0
M1009832 ........... 2            0 /_    0.0         0   115.000
L2860479 ........... 2            0 /_    0.0         0   115.000
M1026854 ........... 1            0 /_    0.0         0   115.000        1-2          0 /_    0.0         0
   -                 2            0 /_    0.0         0   115.000        2-3          0 /_    0.0         0
   -                 3            0 /_    0.0         0   115.000        3-1          0 /_    0.0         0
P901894 ............ 1            0 /_    0.0         0   115.000
M1026485 ........... 2            0 /_    0.0         0   115.000
M1026492 ........... 2            0 /_    0.0         0   115.000
D6413567-3_INT ..... 1            0 /_    0.0         0   115.000        1-2          0 /_    0.0         0
   -                 2            0 /_    0.0         0   115.000        2-3          0 /_    0.0         0
   -                 3            0 /_    0.0         0   115.000        3-1          0 /_    0.0         0
E182724 ............ 1            0 /_    0.0         0   115.000        1-2          0 /_    0.0         0
   -                 2            0 /_    0.0         0   115.000        2-3          0 /_    0.0         0
   -                 3            0 /_    0.0         0   115.000        3-1          0 /_    0.0         0
N1139541 ........... 1            0 /_    0.0         0   115.000        1-2          0 /_    0.0         0
   -                 2            0 /_    0.0         0   115.000        2-3          0 /_    0.0         0
   -                 3            0 /_    0.0         0   115.000        3-1          0 /_    0.0         0
M4122658 ........... 1            0 /_    0.0         0   115.000        1-2          0 /_    0.0         0
   -                 2            0 /_    0.0         0   115.000        2-3          0 /_    0.0         0
   -                 3            0 /_    0.0         0   115.000        3-1          0 /_    0.0         0
L2933135 ........... 1            0 /_    0.0         0   115.000        1-2          0 /_    0.0         0
   -                 2            0 /_    0.0         0   115.000        2-3          0 /_    0.0         0
   -                 3            0 /_    0.0         0   115.000        3-1          0 /_    0.0         0
L2729414 ........... 1            0 /_    0.0         0   115.000        1-2          0 /_    0.0         0
   -                 2            0 /_    0.0         0   115.000        2-3          0 /_    0.0         0
   -                 3            0 /_    0.0         0   115.000        3-1          0 /_    0.0         0
L2729430 ........... 2            0 /_    0.0         0   115.000
L2766742 ........... 2            0 /_    0.0         0   115.000
M1026972 ........... 2            0 /_    0.0         0   115.000
L2860483 ........... 2            0 /_    0.0         0   115.000
L2860490 ........... 1            0 /_    0.0         0   115.000        1-2          0 /_    0.0         0
   -                 2            0 /_    0.0         0   115.000        2-3          0 /_    0.0         0
   -                 3            0 /_    0.0         0   115.000        3-1          0 /_    0.0         0
L3104134 ........... 1            0 /_    0.0         0   115.000        1-2          0 /_    0.0         0
   -                 2            0 /_    0.0         0   115.000        2-3          0 /_    0.0         0
   -                 3            0 /_    0.0         0   115.000        3-1          0 /_    0.0         0
M1089144 ........... 1            0 /_    0.0         0   115.000
P827522 ............ 1            0 /_    0.0         0   115.000
M1089118 ........... 1            0 /_    0.0         0   115.000        1-2          0 /_    0.0         0
   -                 2            0 /_    0.0         0   115.000        2-3          0 /_    0.0         0
   -                 3            0 /_    0.0         0   115.000        3-1          0 /_    0.0         0
L3048208 ........... 1            0 /_    0.0         0   115.000
M1108505 ........... 1            0 /_    0.0         0   115.000        1-2          0 /_    0.0         0
   -                 2            0 /_    0.0         0   115.000        2-3          0 /_    0.0         0
   -                 3            0 /_    0.0         0   115.000        3-1          0 /_    0.0         0
L2955047 ........... 1            0 /_    0.0         0   115.000        1-2          0 /_    0.0         0
   -                 2            0 /_    0.0         0   115.000        2-3          0 /_    0.0         0
   -                 3            0 /_    0.0         0   115.000        3-1          0 /_    0.0         0
M1089148 ........... 1            0 /_    0.0         0   115.000
L2766721 ........... 1            0 /_    0.0         0   115.000
M1026745 ........... 2            0 /_    0.0         0   115.000
L3029183 ........... 2            0 /_    0.0         0   115.000
L2710512 ........... 2            0 /_    0.0         0   115.000
M1047828 ........... 2            0 /_    0.0         0   115.000
M1047342 ........... 1            0 /_    0.0         0   115.000
L3197645 ........... 1            0 /_    0.0         0   115.000
M1069192 ........... 1            0 /_    0.0         0   115.000
L3235253 ........... 1            0 /_    0.0         0   115.000
L3214071 ........... 1            0 /_    0.0         0   115.000        1-2          0 /_    0.0         0
   -                 2            0 /_    0.0         0   115.000        2-3          0 /_    0.0         0
   -                 3            0 /_    0.0         0   115.000        3-1          0 /_    0.0         0
M1125952 ........... 1            0 /_    0.0         0   115.000        1-2          0 /_    0.0         0
   -                 2            0 /_    0.0         0   115.000        2-3          0 /_    0.0         0
   -                 3            0 /_    0.0         0   115.000        3-1          0 /_    0.0         0
M1027101 ........... 2            0 /_    0.0         0   115.000
L2860480 ........... 2            0 /_    0.0         0   115.000
L2710517 ........... 1            0 /_    0.0         0   115.000
M1026646 ........... 1            0 /_    0.0         0   115.000
M1069662 ........... 2            0 /_    0.0         0   115.000
L2935547 ........... 2            0 /_    0.0         0   115.000
M1026931 ........... 1            0 /_    0.0         0   115.000
L3216336 ........... 1            0 /_    0.0         0   115.000
L3142049 ........... 1            0 /_    0.0         0   115.000        1-2          0 /_    0.0         0
   -                 2            0 /_    0.0         0   115.000        2-3          0 /_    0.0         0
   -                 3            0 /_    0.0         0   115.000        3-1          0 /_    0.0         0
M1108493 ........... 1            0 /_    0.0         0   115.000        1-2          0 /_    0.0         0
   -                 2            0 /_    0.0         0   115.000        2-3          0 /_    0.0         0
   -                 3            0 /_    0.0         0   115.000        3-1          0 /_    0.0         0
M1069169 ........... 1            0 /_    0.0         0   115.000        1-2          0 /_    0.0         0
   -                 2            0 /_    0.0         0   115.000        2-3          0 /_    0.0         0
   -                 3            0 /_    0.0         0   115.000        3-1          0 /_    0.0         0
L3010556 ........... 1            0 /_    0.0         0   115.000        1-2          0 /_    0.0         0
   -                 2            0 /_    0.0         0   115.000        2-3          0 /_    0.0         0
   -                 3            0 /_    0.0         0   115.000        3-1          0 /_    0.0         0
L2991933 ........... 3            0 /_    0.0         0   115.000
L3122837 ........... 3            0 /_    0.0         0   115.000
L2691936 ........... 1            0 /_    0.0         0   115.000
L2897772 ........... 1            0 /_    0.0         0   115.000
L3101814 ........... 1            0 /_    0.0         0   115.000
L2766732 ........... 2            0 /_    0.0         0   115.000
L2989564 ........... 2            0 /_    0.0         0   115.000
M1126016 ........... 1            0 /_    0.0         0   115.000
L3120534 ........... 1            0 /_    0.0         0   115.000
M1026330 ........... 1            0 /_    0.0         0   115.000        1-2          0 /_    0.0         0
   -                 2            0 /_    0.0         0   115.000        2-3          0 /_    0.0         0
   -                 3            0 /_    0.0         0   115.000        3-1          0 /_    0.0         0
L2766726 ........... 2            0 /_    0.0         0   115.000
P901912 ............ 2            0 /_    0.0         0   115.000
L3195365 ........... 2            0 /_    0.0         0   115.000
M1108381 ........... 1            0 /_    0.0         0   115.000        1-2          0 /_    0.0         0
   -                 2            0 /_    0.0         0   115.000        2-3          0 /_    0.0         0
   -                 3            0 /_    0.0         0   115.000        3-1          0 /_    0.0         0
L3254237 ........... 1            0 /_    0.0         0   115.000        1-2          0 /_    0.0         0
   -                 2            0 /_    0.0         0   115.000        2-3          0 /_    0.0         0
   -                 3            0 /_    0.0         0   115.000        3-1          0 /_    0.0         0
L2804262 ........... 1            0 /_    0.0         0   115.000
L2841639 ........... 1            0 /_    0.0         0   115.000
N1230123 ........... 2            0 /_    0.0         0   115.000
L2708744 ........... 2            0 /_    0.0         0   115.000
M1069519 ........... 1            0 /_    0.0         0   115.000        1-2          0 /_    0.0         0
   -                 2            0 /_    0.0         0   115.000        2-3          0 /_    0.0         0
   -                 3            0 /_    0.0         0   115.000        3-1          0 /_    0.0         0
P901927 ............ 2            0 /_    0.0         0   115.000
L2897790 ........... 3            0 /_    0.0         0   115.000
L2935566 ........... 3            0 /_    0.0         0   115.000
L3216337 ........... 1            0 /_    0.0         0   115.000
P901931 ............ 3            0 /_    0.0         0   115.000
M1069548 ........... 3            0 /_    0.0         0   115.000
M1010013 ........... 1            0 /_    0.0         0   115.000
L3120503 ........... 1            0 /_    0.0         0   115.000
M1089145 ........... 1            0 /_    0.0         0   115.000        1-2          0 /_    0.0         0
   -                 2            0 /_    0.0         0   115.000        2-3          0 /_    0.0         0
   -                 3            0 /_    0.0         0   115.000        3-1          0 /_    0.0         0
L3215385 ........... 1            0 /_    0.0         0   115.000        1-2          0 /_    0.0         0
   -                 2            0 /_    0.0         0   115.000        2-3          0 /_    0.0         0
   -                 3            0 /_    0.0         0   115.000        3-1          0 /_    0.0         0
M1026852 ........... 1            0 /_    0.0         0   115.000        1-2          0 /_    0.0         0
   -                 2            0 /_    0.0         0   115.000        2-3          0 /_    0.0         0
   -                 3            0 /_    0.0         0   115.000        3-1          0 /_    0.0         0
M1069420 ........... 1            0 /_    0.0         0   115.000        1-2          0 /_    0.0         0
   -                 2            0 /_    0.0         0   115.000        2-3          0 /_    0.0         0
   -                 3            0 /_    0.0         0   115.000        3-1          0 /_    0.0         0
L3157708 ........... 3            0 /_    0.0         0   115.000
N1137991 ........... 3            0 /_    0.0         0   115.000
M1108413 ........... 1            0 /_    0.0         0   115.000
M1108460 ........... 1            0 /_    0.0         0   115.000
P827532 ............ 1            0 /_    0.0         0   115.000
M1047326 ........... 1            0 /_    0.0         0   115.000
E182732 ............ 1            0 /_    0.0         0   115.000        1-2          0 /_    0.0         0
   -                 2            0 /_    0.0         0   115.000        2-3          0 /_    0.0         0
   -                 3            0 /_    0.0         0   115.000        3-1          0 /_    0.0         0
M1026760 ........... 1            0 /_    0.0         0   115.000        1-2          0 /_    0.0         0
   -                 2            0 /_    0.0         0   115.000        2-3          0 /_    0.0         0
   -                 3            0 /_    0.0         0   115.000        3-1          0 /_    0.0         0
L3048205 ........... 3            0 /_    0.0         0   115.000
M1108361 ........... 3            0 /_    0.0         0   115.000
M3036169 ........... 1            0 /_    0.0         0   115.000
L2673317 ........... 1            0 /_    0.0         0   115.000
L3178981 ........... 2            0 /_    0.0         0   115.000
M1047368 ........... 2            0 /_    0.0         0   115.000
N1136354 ........... 1            0 /_    0.0         0   115.000        1-2          0 /_    0.0         0
   -                 2            0 /_    0.0         0   115.000        2-3          0 /_    0.0         0
   -                 3            0 /_    0.0         0   115.000        3-1          0 /_    0.0         0
L2879794 ........... 1            0 /_    0.0         0   115.000
M1142811 ........... 1            0 /_    0.0         0   115.000
M1069565 ........... 2            0 /_    0.0         0   115.000
L2785536 ........... 2            0 /_    0.0         0   115.000
L3104114 ........... 2            0 /_    0.0         0   115.000
M1009824 ........... 2            0 /_    0.0         0   115.000
L2745848 ........... 1            0 /_    0.0         0   115.000        1-2          0 /_    0.0         0
   -                 2            0 /_    0.0         0   115.000        2-3          0 /_    0.0         0
   -                 3            0 /_    0.0         0   115.000        3-1          0 /_    0.0         0
L2673308 ........... 1            0 /_    0.0         0   115.000        1-2          0 /_    0.0         0
   -                 2            0 /_    0.0         0   115.000        2-3          0 /_    0.0         0
   -                 3            0 /_    0.0         0   115.000        3-1          0 /_    0.0         0
L2991939 ........... 1            0 /_    0.0         0   115.000        1-2          0 /_    0.0         0
   -                 2            0 /_    0.0         0   115.000        2-3          0 /_    0.0         0
   -                 3            0 /_    0.0         0   115.000        3-1          0 /_    0.0         0
L2916606 ........... 3            0 /_    0.0         0   115.000
L2822864 ........... 3            0 /_    0.0         0   115.000
M1142851 ........... 1            0 /_    0.0         0   115.000        1-2          0 /_    0.0         0
   -                 2            0 /_    0.0         0   115.000        2-3          0 /_    0.0         0
   -                 3            0 /_    0.0         0   115.000        3-1          0 /_    0.0         0
196-31070 .......... 1            0 /_    0.0         0   115.000        1-2          0 /_    0.0         0
   -                 2            0 /_    0.0         0   115.000        2-3          0 /_    0.0         0
   -                 3            0 /_    0.0         0   115.000        3-1          0 /_    0.0         0
M1209822 ........... 3            0 /_    0.0         0   115.000
M1209823 ........... 3            0 /_    0.0         0   115.000
M1069550 ........... 2            0 /_    0.0         0   115.000
M1069551 ........... 2            0 /_    0.0         0   115.000
L3141397 ........... 2            0 /_    0.0         0   115.000
L3649299 ........... 1            0 /_    0.0         0   115.000
M3772794 ........... 1            0 /_    0.0         0   115.000
P895106 ............ 2            0 /_    0.0         0   115.000
L3048887 ........... 2            0 /_    0.0         0   115.000
M1047824 ........... 2            0 /_    0.0         0   115.000
M1047834 ........... 2            0 /_    0.0         0   115.000
M1069350 ........... 1            0 /_    0.0         0   115.000        1-2          0 /_    0.0         0
   -                 2            0 /_    0.0         0   115.000        2-3          0 /_    0.0         0
   -                 3            0 /_    0.0         0   115.000        3-1          0 /_    0.0         0
N1144668 ........... 1            0 /_    0.0         0   115.000        1-2          0 /_    0.0         0
   -                 2            0 /_    0.0         0   115.000        2-3          0 /_    0.0         0
   -                 3            0 /_    0.0         0   115.000        3-1          0 /_    0.0         0
L2879072 ........... 2            0 /_    0.0         0   115.000
M1047441 ........... 2            0 /_    0.0         0   115.000
M1108274 ........... 2            0 /_    0.0         0   115.000
M1108269 ........... 2            0 /_    0.0         0   115.000
L3235244 ........... 1            0 /_    0.0         0   115.000
M1069398 ........... 1            0 /_    0.0         0   115.000
N1147862 ........... 1            0 /_    0.0         0   115.000
L2685805 ........... 1            0 /_    0.0         0   115.000
M1069247 ........... 1            0 /_    0.0         0   115.000
M1069248 ........... 1            0 /_    0.0         0   115.000
L2786273 ........... 2            0 /_    0.0         0   115.000
M1108278 ........... 2            0 /_    0.0         0   115.000
L3254238 ........... 1            0 /_    0.0         0   115.000        1-2          0 /_    0.0         0
   -                 2            0 /_    0.0         0   115.000        2-3          0 /_    0.0         0
   -                 3            0 /_    0.0         0   115.000        3-1          0 /_    0.0         0
M1047303 ........... 1            0 /_    0.0         0   115.000        1-2          0 /_    0.0         0
   -                 2            0 /_    0.0         0   115.000        2-3          0 /_    0.0         0
   -                 3            0 /_    0.0         0   115.000        3-1          0 /_    0.0         0
M1047633 ........... 3            0 /_    0.0         0   115.000
L2897554 ........... 3            0 /_    0.0         0   115.000
M1069627 ........... 2            0 /_    0.0         0   115.000
L2897791 ........... 2            0 /_    0.0         0   115.000
M1089097 ........... 2            0 /_    0.0         0   115.000
M1108270 ........... 2            0 /_    0.0         0   115.000
N1142101 ........... 1            0 /_    0.0         0   115.000
L2936214 ........... 1            0 /_    0.0         0   115.000
L3066810 ........... 3            0 /_    0.0         0   115.000
L2897769 ........... 3            0 /_    0.0         0   115.000
M1209758 ........... 2            0 /_    0.0         0   115.000
M1209753 ........... 2            0 /_    0.0         0   115.000
M1047528 ........... 1            0 /_    0.0         0   115.000        1-2          0 /_    0.0         0
   -                 2            0 /_    0.0         0   115.000        2-3          0 /_    0.0         0
   -                 3            0 /_    0.0         0   115.000        3-1          0 /_    0.0         0
L2858166 ........... 1            0 /_    0.0         0   115.000        1-2          0 /_    0.0         0
   -                 2            0 /_    0.0         0   115.000        2-3          0 /_    0.0         0
   -                 3            0 /_    0.0         0   115.000        3-1          0 /_    0.0         0
M1142843 ........... 1            0 /_    0.0         0   115.000        1-2          0 /_    0.0         0
   -                 2            0 /_    0.0         0   115.000        2-3          0 /_    0.0         0
   -                 3            0 /_    0.0         0   115.000        3-1          0 /_    0.0         0
L3081380 ........... 1            0 /_    0.0         0   115.000        1-2          0 /_    0.0         0
   -                 2            0 /_    0.0         0   115.000        2-3          0 /_    0.0         0
   -                 3            0 /_    0.0         0   115.000        3-1          0 /_    0.0         0
L2804272 ........... 2            0 /_    0.0         0   115.000
L2841641 ........... 2            0 /_    0.0         0   115.000
M1069393 ........... 2            0 /_    0.0         0   115.000
M1069408 ........... 2            0 /_    0.0         0   115.000
N1142104 ........... 1            0 /_    0.0         0   115.000        1-2          0 /_    0.0         0
   -                 2            0 /_    0.0         0   115.000        2-3          0 /_    0.0         0
   -                 3            0 /_    0.0         0   115.000        3-1          0 /_    0.0         0
M1108500 ........... 1            0 /_    0.0         0   115.000        1-2          0 /_    0.0         0
   -                 2            0 /_    0.0         0   115.000        2-3          0 /_    0.0         0
   -                 3            0 /_    0.0         0   115.000        3-1          0 /_    0.0         0
L3216348 ........... 1            0 /_    0.0         0   115.000
L2841627 ........... 1            0 /_    0.0         0   115.000
L2916599 ........... 1            0 /_    0.0         0   115.000
M1047447 ........... 2            0 /_    0.0         0   115.000
L2954349 ........... 2            0 /_    0.0         0   115.000
L3235246 ........... 2            0 /_    0.0         0   115.000
M1125911 ........... 2            0 /_    0.0         0   115.000
L2711224 ........... 2            0 /_    0.0         0   115.000
N1147863 ........... 3            0 /_    0.0         0   115.000
L3122817 ........... 3            0 /_    0.0         0   115.000
M1186061 ........... 1            0 /_    0.0         0   115.000        1-2          0 /_    0.0         0
   -                 2            0 /_    0.0         0   115.000        2-3          0 /_    0.0         0
   -                 3            0 /_    0.0         0   115.000        3-1          0 /_    0.0         0
L2861223 ........... 2            0 /_    0.0         0   115.000
M1069130 ........... 1            0 /_    0.0         0   115.000
L3085396 ........... 1            0 /_    0.0         0   115.000
E182730 ............ 1            0 /_    0.0         0   115.000
N1142109 ........... 1            0 /_    0.0         0   115.000
M1069417 ........... 1            0 /_    0.0         0   115.000        1-2          0 /_    0.0         0
   -                 2            0 /_    0.0         0   115.000        2-3          0 /_    0.0         0
   -                 3            0 /_    0.0         0   115.000        3-1          0 /_    0.0         0
N1138597 ........... 1            0 /_    0.0         0   115.000        1-2          0 /_    0.0         0
   -                 2            0 /_    0.0         0   115.000        2-3          0 /_    0.0         0
   -                 3            0 /_    0.0         0   115.000        3-1          0 /_    0.0         0
M1026987 ........... 2            0 /_    0.0         0   115.000
M1026990 ........... 2            0 /_    0.0         0   115.000
M1142832 ........... 1            0 /_    0.0         0   115.000        1-2          0 /_    0.0         0
   -                 2            0 /_    0.0         0   115.000        2-3          0 /_    0.0         0
   -                 3            0 /_    0.0         0   115.000        3-1          0 /_    0.0         0
L3160865 ........... 1            0 /_    0.0         0   115.000        1-2          0 /_    0.0         0
   -                 2            0 /_    0.0         0   115.000        2-3          0 /_    0.0         0
   -                 3            0 /_    0.0         0   115.000        3-1          0 /_    0.0         0
L2673323 ........... 3            0 /_    0.0         0   115.000
M1009809 ........... 3            0 /_    0.0         0   115.000
L2822869 ........... 1            0 /_    0.0         0   115.000        1-2          0 /_    0.0         0
   -                 2            0 /_    0.0         0   115.000        2-3          0 /_    0.0         0
   -                 3            0 /_    0.0         0   115.000        3-1          0 /_    0.0         0
M1026808 ........... 1            0 /_    0.0         0   115.000        1-2          0 /_    0.0         0
   -                 2            0 /_    0.0         0   115.000        2-3          0 /_    0.0         0
   -                 3            0 /_    0.0         0   115.000        3-1          0 /_    0.0         0
M1047825 ........... 2            0 /_    0.0         0   115.000
M1069731 ........... 2            0 /_    0.0         0   115.000
N1140520 ........... 3            0 /_    0.0         0   115.000
L2729410 ........... 3            0 /_    0.0         0   115.000
L3178978 ........... 1            0 /_    0.0         0   115.000
M1069384 ........... 1            0 /_    0.0         0   115.000
L3066805 ........... 1            0 /_    0.0         0   115.000
M4362181 ........... 2            0 /_    0.0         0   115.000
M1047319 ........... 3            0 /_    0.0         0   115.000
M1047318 ........... 3            0 /_    0.0         0   115.000
L3216358 ........... 1            0 /_    0.0         0   115.000
M1026826 ........... 1            0 /_    0.0         0   115.000
M1108276 ........... 2            0 /_    0.0         0   115.000
M1089198 ........... 1            0 /_    0.0         0   115.000        1-2          0 /_    0.0         0
   -                 2            0 /_    0.0         0   115.000        2-3          0 /_    0.0         0
   -                 3            0 /_    0.0         0   115.000        3-1          0 /_    0.0         0
M1089201 ........... 1            0 /_    0.0         0   115.000        1-2          0 /_    0.0         0
   -                 2            0 /_    0.0         0   115.000        2-3          0 /_    0.0         0
   -                 3            0 /_    0.0         0   115.000        3-1          0 /_    0.0         0
M1047763 ........... 1            0 /_    0.0         0   115.000        1-2          0 /_    0.0         0
   -                 2            0 /_    0.0         0   115.000        2-3          0 /_    0.0         0
   -                 3            0 /_    0.0         0   115.000        3-1          0 /_    0.0         0
N1136027 ........... 1            0 /_    0.0         0   115.000
L3101827 ........... 3            0 /_    0.0         0   115.000
M1108540 ........... 3            0 /_    0.0         0   115.000
M1026335 ........... 1            0 /_    0.0         0   115.000
L2804259 ........... 1            0 /_    0.0         0   115.000
N1136357 ........... 3            0 /_    0.0         0   115.000
M1047513 ........... 1            0 /_    0.0         0   115.000        1-2          0 /_    0.0         0
   -                 2            0 /_    0.0         0   115.000        2-3          0 /_    0.0         0
   -                 3            0 /_    0.0         0   115.000        3-1          0 /_    0.0         0
M1047507 ........... 1            0 /_    0.0         0   115.000        1-2          0 /_    0.0         0
   -                 2            0 /_    0.0         0   115.000        2-3          0 /_    0.0         0
   -                 3            0 /_    0.0         0   115.000        3-1          0 /_    0.0         0
M1142863 ........... 1            0 /_    0.0         0   115.000        1-2          0 /_    0.0         0
   -                 2            0 /_    0.0         0   115.000        2-3          0 /_    0.0         0
   -                 3            0 /_    0.0         0   115.000        3-1          0 /_    0.0         0
N1141480 ........... 3            0 /_    0.0         0   115.000
M1125916 ........... 2            0 /_    0.0         0   115.000
...